7
	Energy:       0.0193856
F         -1.60190        1.05792        0.54978
S         -0.18405        1.11568       -0.40529
F          1.23390        1.17314       -1.36022
Cl         0.44662       -0.71132        0.42086
F         -0.99144        0.27171       -1.65494
F          0.62344        1.95936        0.84449
F         -0.69726        2.60244       -1.07757
